/*--------------------------------*- C++ -*----------------------------------*\
| =========                 |                                                 |
| \\      /  F ield         | OpenFOAM: The Open Source CFD Toolbox           |
|  \\    /   O peration     | Version:  2.3.1                                 |
|   \\  /    A nd           | Web:      www.OpenFOAM.org                      |
|    \\/     M anipulation  |                                                 |
\*---------------------------------------------------------------------------*/
FoamFile
{
    version     2.0;
    format      ascii;
    class       dictionary;
    object      blockMeshDict;
}
// * * * * * * * * * * * * * * * * * * * * * * * * * * * * * * * * * * * * * //

convertToMeters 0.1;

vertices
(
       ( -2.50000000e+00  -2.33333333e+00  -2.16666667e+00  -2.00000000e+00
  -1.83333333e+00  -1.66666667e+00  -1.50000000e+00  -1.33333333e+00
  -1.16666667e+00  -1.00000000e+00  -8.33333333e-01  -6.66666667e-01
  -5.00000000e-01  -3.33333333e-01  -1.66666667e-01   7.65404249e-17
   1.95543081e-01   3.86271243e-01   5.67488125e-01   7.34731565e-01
   8.83883476e-01   1.01127124e+00   1.11375816e+00   1.18882065e+00
   1.23461043e+00   1.25000000e+00   1.23461043e+00   1.18882065e+00
   1.11375816e+00   1.01127124e+00   8.83883476e-01   7.34731565e-01
   5.67488125e-01   3.86271243e-01   1.95543081e-01   7.65404249e-17
  -1.25000000e-01  -2.50000000e-01  -3.75000000e-01  -5.00000000e-01
  -6.25000000e-01  -7.50000000e-01  -8.75000000e-01  -1.00000000e+00
  -1.12500000e+00  -1.25000000e+00  -1.37500000e+00  -1.50000000e+00
  -1.62500000e+00  -1.75000000e+00  -1.87500000e+00  -2.00000000e+00
  -2.12500000e+00  -2.25000000e+00  -2.37500000e+00  -2.50000000e+00
  -2.60980271e+00  -2.78410365e+00  -3.06078915e+00  -3.50000000e+00
   1.25000000e+00   1.25000000e+00   1.25000000e+00   1.25000000e+00
   1.25000000e+00   1.25000000e+00   1.25000000e+00   1.25000000e+00
   1.25000000e+00   1.25000000e+00   1.25000000e+00   1.25000000e+00
   1.25000000e+00   1.25000000e+00   1.25000000e+00   1.25000000e+00
   1.23461043e+00   1.18882065e+00   1.11375816e+00   1.01127124e+00
   8.83883476e-01   7.34731565e-01   5.67488125e-01   3.86271243e-01
   1.95543081e-01   0.00000000e+00  -1.95543081e-01  -3.86271243e-01
  -5.67488125e-01  -7.34731565e-01  -8.83883476e-01  -1.01127124e+00
  -1.11375816e+00  -1.18882065e+00  -1.23461043e+00  -1.25000000e+00
  -1.25000000e+00  -1.25000000e+00  -1.25000000e+00  -1.25000000e+00
  -1.25000000e+00  -1.25000000e+00  -1.25000000e+00  -1.25000000e+00
  -1.25000000e+00  -1.25000000e+00  -1.25000000e+00  -1.25000000e+00
  -1.25000000e+00  -1.25000000e+00  -1.25000000e+00  -1.25000000e+00
  -1.25000000e+00  -1.25000000e+00  -1.25000000e+00  -1.25000000e+00
  -1.25000000e+00  -1.25000000e+00  -1.25000000e+00  -1.25000000e+00
   0.00000000e+00   0.00000000e+00   0.00000000e+00   0.00000000e+00
   0.00000000e+00   0.00000000e+00   0.00000000e+00   0.00000000e+00
   0.00000000e+00   0.00000000e+00   0.00000000e+00   0.00000000e+00
   0.00000000e+00   0.00000000e+00   0.00000000e+00   0.00000000e+00
   0.00000000e+00   0.00000000e+00   0.00000000e+00   0.00000000e+00
   0.00000000e+00   0.00000000e+00   0.00000000e+00   0.00000000e+00
   0.00000000e+00   0.00000000e+00   0.00000000e+00   0.00000000e+00
   0.00000000e+00   0.00000000e+00   0.00000000e+00   0.00000000e+00
   0.00000000e+00   0.00000000e+00   0.00000000e+00   0.00000000e+00
   0.00000000e+00   0.00000000e+00   0.00000000e+00   0.00000000e+00
   0.00000000e+00   0.00000000e+00   0.00000000e+00   0.00000000e+00
   0.00000000e+00   0.00000000e+00   0.00000000e+00   0.00000000e+00
   0.00000000e+00   0.00000000e+00   0.00000000e+00   0.00000000e+00
   0.00000000e+00   0.00000000e+00   0.00000000e+00   0.00000000e+00
   0.00000000e+00   0.00000000e+00   0.00000000e+00   0.00000000e+00)
	( -2.50000000e+00  -2.33333333e+00  -2.16666667e+00  -2.00000000e+00
  -1.83333333e+00  -1.66666667e+00  -1.50000000e+00  -1.33333333e+00
  -1.16666667e+00  -1.00000000e+00  -8.33333333e-01  -6.66666667e-01
  -5.00000000e-01  -3.33333333e-01  -1.66666667e-01   7.60330677e-17
   1.94246901e-01   3.83710798e-01   5.63726463e-01   7.29861310e-01
   8.78024550e-01   1.00456791e+00   1.10637548e+00   1.18094041e+00
   1.22642666e+00   1.24171423e+00   1.22642666e+00   1.18094041e+00
   1.10637548e+00   1.00456791e+00   8.78024550e-01   7.29861310e-01
   5.63726463e-01   3.83710798e-01   1.94246901e-01   7.60330677e-17
  -1.25000000e-01  -2.50000000e-01  -3.75000000e-01  -5.00000000e-01
  -6.25000000e-01  -7.50000000e-01  -8.75000000e-01  -1.00000000e+00
  -1.12500000e+00  -1.25000000e+00  -1.37500000e+00  -1.50000000e+00
  -1.62500000e+00  -1.75000000e+00  -1.87500000e+00  -2.00000000e+00
  -2.12500000e+00  -2.25000000e+00  -2.37500000e+00  -2.50000000e+00
  -2.60980271e+00  -2.78410365e+00  -3.06078915e+00  -3.50000000e+00
   1.24171423e+00   1.24171423e+00   1.24171423e+00   1.24171423e+00
   1.24171423e+00   1.24171423e+00   1.24171423e+00   1.24171423e+00
   1.24171423e+00   1.24171423e+00   1.24171423e+00   1.24171423e+00
   1.24171423e+00   1.24171423e+00   1.24171423e+00   1.24171423e+00
   1.22642666e+00   1.18094041e+00   1.10637548e+00   1.00456791e+00
   8.78024550e-01   7.29861310e-01   5.63726463e-01   3.83710798e-01
   1.94246901e-01   0.00000000e+00  -1.94246901e-01  -3.83710798e-01
  -5.63726463e-01  -7.29861310e-01  -8.78024550e-01  -1.00456791e+00
  -1.10637548e+00  -1.18094041e+00  -1.22642666e+00  -1.24171423e+00
  -1.24171423e+00  -1.24171423e+00  -1.24171423e+00  -1.24171423e+00
  -1.24171423e+00  -1.24171423e+00  -1.24171423e+00  -1.24171423e+00
  -1.24171423e+00  -1.24171423e+00  -1.24171423e+00  -1.24171423e+00
  -1.24171423e+00  -1.24171423e+00  -1.24171423e+00  -1.24171423e+00
  -1.24171423e+00  -1.24171423e+00  -1.24171423e+00  -1.24171423e+00
  -1.24171423e+00  -1.24171423e+00  -1.24171423e+00  -1.24171423e+00
   0.00000000e+00   0.00000000e+00   0.00000000e+00   0.00000000e+00
   0.00000000e+00   0.00000000e+00   0.00000000e+00   0.00000000e+00
   0.00000000e+00   0.00000000e+00   0.00000000e+00   0.00000000e+00
   0.00000000e+00   0.00000000e+00   0.00000000e+00   0.00000000e+00
   0.00000000e+00   0.00000000e+00   0.00000000e+00   0.00000000e+00
   0.00000000e+00   0.00000000e+00   0.00000000e+00   0.00000000e+00
   0.00000000e+00   0.00000000e+00   0.00000000e+00   0.00000000e+00
   0.00000000e+00   0.00000000e+00   0.00000000e+00   0.00000000e+00
   0.00000000e+00   0.00000000e+00   0.00000000e+00   0.00000000e+00
   0.00000000e+00   0.00000000e+00   0.00000000e+00   0.00000000e+00
   0.00000000e+00   0.00000000e+00   0.00000000e+00   0.00000000e+00
   0.00000000e+00   0.00000000e+00   0.00000000e+00   0.00000000e+00
   0.00000000e+00   0.00000000e+00   0.00000000e+00   0.00000000e+00
   0.00000000e+00   0.00000000e+00   0.00000000e+00   0.00000000e+00
   0.00000000e+00   0.00000000e+00   0.00000000e+00   0.00000000e+00)
	( -2.50000000e+00  -2.33333333e+00  -2.16666667e+00  -2.00000000e+00
  -1.83333333e+00  -1.66666667e+00  -1.50000000e+00  -1.33333333e+00
  -1.16666667e+00  -1.00000000e+00  -8.33333333e-01  -6.66666667e-01
  -5.00000000e-01  -3.33333333e-01  -1.66666667e-01   7.54350109e-17
   1.92719004e-01   3.80692627e-01   5.59292333e-01   7.24120406e-01
   8.71118232e-01   9.96666236e-01   1.09767301e+00   1.17165143e+00
   1.21677990e+00   1.23194722e+00   1.21677990e+00   1.17165143e+00
   1.09767301e+00   9.96666236e-01   8.71118232e-01   7.24120406e-01
   5.59292333e-01   3.80692627e-01   1.92719004e-01   7.54350109e-17
  -1.25000000e-01  -2.50000000e-01  -3.75000000e-01  -5.00000000e-01
  -6.25000000e-01  -7.50000000e-01  -8.75000000e-01  -1.00000000e+00
  -1.12500000e+00  -1.25000000e+00  -1.37500000e+00  -1.50000000e+00
  -1.62500000e+00  -1.75000000e+00  -1.87500000e+00  -2.00000000e+00
  -2.12500000e+00  -2.25000000e+00  -2.37500000e+00  -2.50000000e+00
  -2.60980271e+00  -2.78410365e+00  -3.06078915e+00  -3.50000000e+00
   1.23194722e+00   1.23194722e+00   1.23194722e+00   1.23194722e+00
   1.23194722e+00   1.23194722e+00   1.23194722e+00   1.23194722e+00
   1.23194722e+00   1.23194722e+00   1.23194722e+00   1.23194722e+00
   1.23194722e+00   1.23194722e+00   1.23194722e+00   1.23194722e+00
   1.21677990e+00   1.17165143e+00   1.09767301e+00   9.96666236e-01
   8.71118232e-01   7.24120406e-01   5.59292333e-01   3.80692627e-01
   1.92719004e-01   0.00000000e+00  -1.92719004e-01  -3.80692627e-01
  -5.59292333e-01  -7.24120406e-01  -8.71118232e-01  -9.96666236e-01
  -1.09767301e+00  -1.17165143e+00  -1.21677990e+00  -1.23194722e+00
  -1.23194722e+00  -1.23194722e+00  -1.23194722e+00  -1.23194722e+00
  -1.23194722e+00  -1.23194722e+00  -1.23194722e+00  -1.23194722e+00
  -1.23194722e+00  -1.23194722e+00  -1.23194722e+00  -1.23194722e+00
  -1.23194722e+00  -1.23194722e+00  -1.23194722e+00  -1.23194722e+00
  -1.23194722e+00  -1.23194722e+00  -1.23194722e+00  -1.23194722e+00
  -1.23194722e+00  -1.23194722e+00  -1.23194722e+00  -1.23194722e+00
   0.00000000e+00   0.00000000e+00   0.00000000e+00   0.00000000e+00
   0.00000000e+00   0.00000000e+00   0.00000000e+00   0.00000000e+00
   0.00000000e+00   0.00000000e+00   0.00000000e+00   0.00000000e+00
   0.00000000e+00   0.00000000e+00   0.00000000e+00   0.00000000e+00
   0.00000000e+00   0.00000000e+00   0.00000000e+00   0.00000000e+00
   0.00000000e+00   0.00000000e+00   0.00000000e+00   0.00000000e+00
   0.00000000e+00   0.00000000e+00   0.00000000e+00   0.00000000e+00
   0.00000000e+00   0.00000000e+00   0.00000000e+00   0.00000000e+00
   0.00000000e+00   0.00000000e+00   0.00000000e+00   0.00000000e+00
   0.00000000e+00   0.00000000e+00   0.00000000e+00   0.00000000e+00
   0.00000000e+00   0.00000000e+00   0.00000000e+00   0.00000000e+00
   0.00000000e+00   0.00000000e+00   0.00000000e+00   0.00000000e+00
   0.00000000e+00   0.00000000e+00   0.00000000e+00   0.00000000e+00
   0.00000000e+00   0.00000000e+00   0.00000000e+00   0.00000000e+00
   0.00000000e+00   0.00000000e+00   0.00000000e+00   0.00000000e+00)
	( -2.50000000e+00  -2.33333333e+00  -2.16666667e+00  -2.00000000e+00
  -1.83333333e+00  -1.66666667e+00  -1.50000000e+00  -1.33333333e+00
  -1.16666667e+00  -1.00000000e+00  -8.33333333e-01  -6.66666667e-01
  -5.00000000e-01  -3.33333333e-01  -1.66666667e-01   7.47300403e-17
   1.90917967e-01   3.77134900e-01   5.54065521e-01   7.17353209e-01
   8.62977281e-01   9.87351988e-01   1.08741481e+00   1.16070187e+00
   1.20540860e+00   1.22043417e+00   1.20540860e+00   1.16070187e+00
   1.08741481e+00   9.87351988e-01   8.62977281e-01   7.17353209e-01
   5.54065521e-01   3.77134900e-01   1.90917967e-01   7.47300403e-17
  -1.25000000e-01  -2.50000000e-01  -3.75000000e-01  -5.00000000e-01
  -6.25000000e-01  -7.50000000e-01  -8.75000000e-01  -1.00000000e+00
  -1.12500000e+00  -1.25000000e+00  -1.37500000e+00  -1.50000000e+00
  -1.62500000e+00  -1.75000000e+00  -1.87500000e+00  -2.00000000e+00
  -2.12500000e+00  -2.25000000e+00  -2.37500000e+00  -2.50000000e+00
  -2.60980271e+00  -2.78410365e+00  -3.06078915e+00  -3.50000000e+00
   1.22043417e+00   1.22043417e+00   1.22043417e+00   1.22043417e+00
   1.22043417e+00   1.22043417e+00   1.22043417e+00   1.22043417e+00
   1.22043417e+00   1.22043417e+00   1.22043417e+00   1.22043417e+00
   1.22043417e+00   1.22043417e+00   1.22043417e+00   1.22043417e+00
   1.20540860e+00   1.16070187e+00   1.08741481e+00   9.87351988e-01
   8.62977281e-01   7.17353209e-01   5.54065521e-01   3.77134900e-01
   1.90917967e-01   0.00000000e+00  -1.90917967e-01  -3.77134900e-01
  -5.54065521e-01  -7.17353209e-01  -8.62977281e-01  -9.87351988e-01
  -1.08741481e+00  -1.16070187e+00  -1.20540860e+00  -1.22043417e+00
  -1.22043417e+00  -1.22043417e+00  -1.22043417e+00  -1.22043417e+00
  -1.22043417e+00  -1.22043417e+00  -1.22043417e+00  -1.22043417e+00
  -1.22043417e+00  -1.22043417e+00  -1.22043417e+00  -1.22043417e+00
  -1.22043417e+00  -1.22043417e+00  -1.22043417e+00  -1.22043417e+00
  -1.22043417e+00  -1.22043417e+00  -1.22043417e+00  -1.22043417e+00
  -1.22043417e+00  -1.22043417e+00  -1.22043417e+00  -1.22043417e+00
   0.00000000e+00   0.00000000e+00   0.00000000e+00   0.00000000e+00
   0.00000000e+00   0.00000000e+00   0.00000000e+00   0.00000000e+00
   0.00000000e+00   0.00000000e+00   0.00000000e+00   0.00000000e+00
   0.00000000e+00   0.00000000e+00   0.00000000e+00   0.00000000e+00
   0.00000000e+00   0.00000000e+00   0.00000000e+00   0.00000000e+00
   0.00000000e+00   0.00000000e+00   0.00000000e+00   0.00000000e+00
   0.00000000e+00   0.00000000e+00   0.00000000e+00   0.00000000e+00
   0.00000000e+00   0.00000000e+00   0.00000000e+00   0.00000000e+00
   0.00000000e+00   0.00000000e+00   0.00000000e+00   0.00000000e+00
   0.00000000e+00   0.00000000e+00   0.00000000e+00   0.00000000e+00
   0.00000000e+00   0.00000000e+00   0.00000000e+00   0.00000000e+00
   0.00000000e+00   0.00000000e+00   0.00000000e+00   0.00000000e+00
   0.00000000e+00   0.00000000e+00   0.00000000e+00   0.00000000e+00
   0.00000000e+00   0.00000000e+00   0.00000000e+00   0.00000000e+00
   0.00000000e+00   0.00000000e+00   0.00000000e+00   0.00000000e+00)
	( -2.50000000e+00  -2.33333333e+00  -2.16666667e+00  -2.00000000e+00
  -1.83333333e+00  -1.66666667e+00  -1.50000000e+00  -1.33333333e+00
  -1.16666667e+00  -1.00000000e+00  -8.33333333e-01  -6.66666667e-01
  -5.00000000e-01  -3.33333333e-01  -1.66666667e-01   7.38990430e-17
   1.88794961e-01   3.72941164e-01   5.47904318e-01   7.09376249e-01
   8.53380983e-01   9.76372644e-01   1.07532277e+00   1.14779488e+00
   1.19200447e+00   1.20686296e+00   1.19200447e+00   1.14779488e+00
   1.07532277e+00   9.76372644e-01   8.53380983e-01   7.09376249e-01
   5.47904318e-01   3.72941164e-01   1.88794961e-01   7.38990430e-17
  -1.25000000e-01  -2.50000000e-01  -3.75000000e-01  -5.00000000e-01
  -6.25000000e-01  -7.50000000e-01  -8.75000000e-01  -1.00000000e+00
  -1.12500000e+00  -1.25000000e+00  -1.37500000e+00  -1.50000000e+00
  -1.62500000e+00  -1.75000000e+00  -1.87500000e+00  -2.00000000e+00
  -2.12500000e+00  -2.25000000e+00  -2.37500000e+00  -2.50000000e+00
  -2.60980271e+00  -2.78410365e+00  -3.06078915e+00  -3.50000000e+00
   1.20686296e+00   1.20686296e+00   1.20686296e+00   1.20686296e+00
   1.20686296e+00   1.20686296e+00   1.20686296e+00   1.20686296e+00
   1.20686296e+00   1.20686296e+00   1.20686296e+00   1.20686296e+00
   1.20686296e+00   1.20686296e+00   1.20686296e+00   1.20686296e+00
   1.19200447e+00   1.14779488e+00   1.07532277e+00   9.76372644e-01
   8.53380983e-01   7.09376249e-01   5.47904318e-01   3.72941164e-01
   1.88794961e-01   0.00000000e+00  -1.88794961e-01  -3.72941164e-01
  -5.47904318e-01  -7.09376249e-01  -8.53380983e-01  -9.76372644e-01
  -1.07532277e+00  -1.14779488e+00  -1.19200447e+00  -1.20686296e+00
  -1.20686296e+00  -1.20686296e+00  -1.20686296e+00  -1.20686296e+00
  -1.20686296e+00  -1.20686296e+00  -1.20686296e+00  -1.20686296e+00
  -1.20686296e+00  -1.20686296e+00  -1.20686296e+00  -1.20686296e+00
  -1.20686296e+00  -1.20686296e+00  -1.20686296e+00  -1.20686296e+00
  -1.20686296e+00  -1.20686296e+00  -1.20686296e+00  -1.20686296e+00
  -1.20686296e+00  -1.20686296e+00  -1.20686296e+00  -1.20686296e+00
   0.00000000e+00   0.00000000e+00   0.00000000e+00   0.00000000e+00
   0.00000000e+00   0.00000000e+00   0.00000000e+00   0.00000000e+00
   0.00000000e+00   0.00000000e+00   0.00000000e+00   0.00000000e+00
   0.00000000e+00   0.00000000e+00   0.00000000e+00   0.00000000e+00
   0.00000000e+00   0.00000000e+00   0.00000000e+00   0.00000000e+00
   0.00000000e+00   0.00000000e+00   0.00000000e+00   0.00000000e+00
   0.00000000e+00   0.00000000e+00   0.00000000e+00   0.00000000e+00
   0.00000000e+00   0.00000000e+00   0.00000000e+00   0.00000000e+00
   0.00000000e+00   0.00000000e+00   0.00000000e+00   0.00000000e+00
   0.00000000e+00   0.00000000e+00   0.00000000e+00   0.00000000e+00
   0.00000000e+00   0.00000000e+00   0.00000000e+00   0.00000000e+00
   0.00000000e+00   0.00000000e+00   0.00000000e+00   0.00000000e+00
   0.00000000e+00   0.00000000e+00   0.00000000e+00   0.00000000e+00
   0.00000000e+00   0.00000000e+00   0.00000000e+00   0.00000000e+00
   0.00000000e+00   0.00000000e+00   0.00000000e+00   0.00000000e+00)
	( -2.50000000e+00  -2.33333333e+00  -2.16666667e+00  -2.00000000e+00
  -1.83333333e+00  -1.66666667e+00  -1.50000000e+00  -1.33333333e+00
  -1.16666667e+00  -1.00000000e+00  -8.33333333e-01  -6.66666667e-01
  -5.00000000e-01  -3.33333333e-01  -1.66666667e-01   7.29194895e-17
   1.86292429e-01   3.67997720e-01   5.40641686e-01   6.99973259e-01
   8.42069167e-01   9.63430538e-01   1.06106905e+00   1.13258052e+00
   1.17620410e+00   1.19086564e+00   1.17620410e+00   1.13258052e+00
   1.06106905e+00   9.63430538e-01   8.42069167e-01   6.99973259e-01
   5.40641686e-01   3.67997720e-01   1.86292429e-01   7.29194895e-17
  -1.25000000e-01  -2.50000000e-01  -3.75000000e-01  -5.00000000e-01
  -6.25000000e-01  -7.50000000e-01  -8.75000000e-01  -1.00000000e+00
  -1.12500000e+00  -1.25000000e+00  -1.37500000e+00  -1.50000000e+00
  -1.62500000e+00  -1.75000000e+00  -1.87500000e+00  -2.00000000e+00
  -2.12500000e+00  -2.25000000e+00  -2.37500000e+00  -2.50000000e+00
  -2.60980271e+00  -2.78410365e+00  -3.06078915e+00  -3.50000000e+00
   1.19086564e+00   1.19086564e+00   1.19086564e+00   1.19086564e+00
   1.19086564e+00   1.19086564e+00   1.19086564e+00   1.19086564e+00
   1.19086564e+00   1.19086564e+00   1.19086564e+00   1.19086564e+00
   1.19086564e+00   1.19086564e+00   1.19086564e+00   1.19086564e+00
   1.17620410e+00   1.13258052e+00   1.06106905e+00   9.63430538e-01
   8.42069167e-01   6.99973259e-01   5.40641686e-01   3.67997720e-01
   1.86292429e-01   0.00000000e+00  -1.86292429e-01  -3.67997720e-01
  -5.40641686e-01  -6.99973259e-01  -8.42069167e-01  -9.63430538e-01
  -1.06106905e+00  -1.13258052e+00  -1.17620410e+00  -1.19086564e+00
  -1.19086564e+00  -1.19086564e+00  -1.19086564e+00  -1.19086564e+00
  -1.19086564e+00  -1.19086564e+00  -1.19086564e+00  -1.19086564e+00
  -1.19086564e+00  -1.19086564e+00  -1.19086564e+00  -1.19086564e+00
  -1.19086564e+00  -1.19086564e+00  -1.19086564e+00  -1.19086564e+00
  -1.19086564e+00  -1.19086564e+00  -1.19086564e+00  -1.19086564e+00
  -1.19086564e+00  -1.19086564e+00  -1.19086564e+00  -1.19086564e+00
   0.00000000e+00   0.00000000e+00   0.00000000e+00   0.00000000e+00
   0.00000000e+00   0.00000000e+00   0.00000000e+00   0.00000000e+00
   0.00000000e+00   0.00000000e+00   0.00000000e+00   0.00000000e+00
   0.00000000e+00   0.00000000e+00   0.00000000e+00   0.00000000e+00
   0.00000000e+00   0.00000000e+00   0.00000000e+00   0.00000000e+00
   0.00000000e+00   0.00000000e+00   0.00000000e+00   0.00000000e+00
   0.00000000e+00   0.00000000e+00   0.00000000e+00   0.00000000e+00
   0.00000000e+00   0.00000000e+00   0.00000000e+00   0.00000000e+00
   0.00000000e+00   0.00000000e+00   0.00000000e+00   0.00000000e+00
   0.00000000e+00   0.00000000e+00   0.00000000e+00   0.00000000e+00
   0.00000000e+00   0.00000000e+00   0.00000000e+00   0.00000000e+00
   0.00000000e+00   0.00000000e+00   0.00000000e+00   0.00000000e+00
   0.00000000e+00   0.00000000e+00   0.00000000e+00   0.00000000e+00
   0.00000000e+00   0.00000000e+00   0.00000000e+00   0.00000000e+00
   0.00000000e+00   0.00000000e+00   0.00000000e+00   0.00000000e+00)
	( -2.50000000e+00  -2.33333333e+00  -2.16666667e+00  -2.00000000e+00
  -1.83333333e+00  -1.66666667e+00  -1.50000000e+00  -1.33333333e+00
  -1.16666667e+00  -1.00000000e+00  -8.33333333e-01  -6.66666667e-01
  -5.00000000e-01  -3.33333333e-01  -1.66666667e-01   7.17648226e-17
   1.83342522e-01   3.62170542e-01   5.32080722e-01   6.88889309e-01
   8.28735154e-01   9.48174790e-01   1.04426722e+00   1.11464632e+00
   1.15757913e+00   1.17200849e+00   1.15757913e+00   1.11464632e+00
   1.04426722e+00   9.48174790e-01   8.28735154e-01   6.88889309e-01
   5.32080722e-01   3.62170542e-01   1.83342522e-01   7.17648226e-17
  -1.25000000e-01  -2.50000000e-01  -3.75000000e-01  -5.00000000e-01
  -6.25000000e-01  -7.50000000e-01  -8.75000000e-01  -1.00000000e+00
  -1.12500000e+00  -1.25000000e+00  -1.37500000e+00  -1.50000000e+00
  -1.62500000e+00  -1.75000000e+00  -1.87500000e+00  -2.00000000e+00
  -2.12500000e+00  -2.25000000e+00  -2.37500000e+00  -2.50000000e+00
  -2.60980271e+00  -2.78410365e+00  -3.06078915e+00  -3.50000000e+00
   1.17200849e+00   1.17200849e+00   1.17200849e+00   1.17200849e+00
   1.17200849e+00   1.17200849e+00   1.17200849e+00   1.17200849e+00
   1.17200849e+00   1.17200849e+00   1.17200849e+00   1.17200849e+00
   1.17200849e+00   1.17200849e+00   1.17200849e+00   1.17200849e+00
   1.15757913e+00   1.11464632e+00   1.04426722e+00   9.48174790e-01
   8.28735154e-01   6.88889309e-01   5.32080722e-01   3.62170542e-01
   1.83342522e-01   0.00000000e+00  -1.83342522e-01  -3.62170542e-01
  -5.32080722e-01  -6.88889309e-01  -8.28735154e-01  -9.48174790e-01
  -1.04426722e+00  -1.11464632e+00  -1.15757913e+00  -1.17200849e+00
  -1.17200849e+00  -1.17200849e+00  -1.17200849e+00  -1.17200849e+00
  -1.17200849e+00  -1.17200849e+00  -1.17200849e+00  -1.17200849e+00
  -1.17200849e+00  -1.17200849e+00  -1.17200849e+00  -1.17200849e+00
  -1.17200849e+00  -1.17200849e+00  -1.17200849e+00  -1.17200849e+00
  -1.17200849e+00  -1.17200849e+00  -1.17200849e+00  -1.17200849e+00
  -1.17200849e+00  -1.17200849e+00  -1.17200849e+00  -1.17200849e+00
   0.00000000e+00   0.00000000e+00   0.00000000e+00   0.00000000e+00
   0.00000000e+00   0.00000000e+00   0.00000000e+00   0.00000000e+00
   0.00000000e+00   0.00000000e+00   0.00000000e+00   0.00000000e+00
   0.00000000e+00   0.00000000e+00   0.00000000e+00   0.00000000e+00
   0.00000000e+00   0.00000000e+00   0.00000000e+00   0.00000000e+00
   0.00000000e+00   0.00000000e+00   0.00000000e+00   0.00000000e+00
   0.00000000e+00   0.00000000e+00   0.00000000e+00   0.00000000e+00
   0.00000000e+00   0.00000000e+00   0.00000000e+00   0.00000000e+00
   0.00000000e+00   0.00000000e+00   0.00000000e+00   0.00000000e+00
   0.00000000e+00   0.00000000e+00   0.00000000e+00   0.00000000e+00
   0.00000000e+00   0.00000000e+00   0.00000000e+00   0.00000000e+00
   0.00000000e+00   0.00000000e+00   0.00000000e+00   0.00000000e+00
   0.00000000e+00   0.00000000e+00   0.00000000e+00   0.00000000e+00
   0.00000000e+00   0.00000000e+00   0.00000000e+00   0.00000000e+00
   0.00000000e+00   0.00000000e+00   0.00000000e+00   0.00000000e+00)
	( -2.50000000e+00  -2.33333333e+00  -2.16666667e+00  -2.00000000e+00
  -1.83333333e+00  -1.66666667e+00  -1.50000000e+00  -1.33333333e+00
  -1.16666667e+00  -1.00000000e+00  -8.33333333e-01  -6.66666667e-01
  -5.00000000e-01  -3.33333333e-01  -1.66666667e-01   7.04037374e-17
   1.79865264e-01   3.55301648e-01   5.21989327e-01   6.75823896e-01
   8.13017438e-01   9.30191792e-01   1.02446174e+00   1.09350603e+00
   1.13562458e+00   1.14978029e+00   1.13562458e+00   1.09350603e+00
   1.02446174e+00   9.30191792e-01   8.13017438e-01   6.75823896e-01
   5.21989327e-01   3.55301648e-01   1.79865264e-01   7.04037374e-17
  -1.25000000e-01  -2.50000000e-01  -3.75000000e-01  -5.00000000e-01
  -6.25000000e-01  -7.50000000e-01  -8.75000000e-01  -1.00000000e+00
  -1.12500000e+00  -1.25000000e+00  -1.37500000e+00  -1.50000000e+00
  -1.62500000e+00  -1.75000000e+00  -1.87500000e+00  -2.00000000e+00
  -2.12500000e+00  -2.25000000e+00  -2.37500000e+00  -2.50000000e+00
  -2.60980271e+00  -2.78410365e+00  -3.06078915e+00  -3.50000000e+00
   1.14978029e+00   1.14978029e+00   1.14978029e+00   1.14978029e+00
   1.14978029e+00   1.14978029e+00   1.14978029e+00   1.14978029e+00
   1.14978029e+00   1.14978029e+00   1.14978029e+00   1.14978029e+00
   1.14978029e+00   1.14978029e+00   1.14978029e+00   1.14978029e+00
   1.13562458e+00   1.09350603e+00   1.02446174e+00   9.30191792e-01
   8.13017438e-01   6.75823896e-01   5.21989327e-01   3.55301648e-01
   1.79865264e-01   0.00000000e+00  -1.79865264e-01  -3.55301648e-01
  -5.21989327e-01  -6.75823896e-01  -8.13017438e-01  -9.30191792e-01
  -1.02446174e+00  -1.09350603e+00  -1.13562458e+00  -1.14978029e+00
  -1.14978029e+00  -1.14978029e+00  -1.14978029e+00  -1.14978029e+00
  -1.14978029e+00  -1.14978029e+00  -1.14978029e+00  -1.14978029e+00
  -1.14978029e+00  -1.14978029e+00  -1.14978029e+00  -1.14978029e+00
  -1.14978029e+00  -1.14978029e+00  -1.14978029e+00  -1.14978029e+00
  -1.14978029e+00  -1.14978029e+00  -1.14978029e+00  -1.14978029e+00
  -1.14978029e+00  -1.14978029e+00  -1.14978029e+00  -1.14978029e+00
   0.00000000e+00   0.00000000e+00   0.00000000e+00   0.00000000e+00
   0.00000000e+00   0.00000000e+00   0.00000000e+00   0.00000000e+00
   0.00000000e+00   0.00000000e+00   0.00000000e+00   0.00000000e+00
   0.00000000e+00   0.00000000e+00   0.00000000e+00   0.00000000e+00
   0.00000000e+00   0.00000000e+00   0.00000000e+00   0.00000000e+00
   0.00000000e+00   0.00000000e+00   0.00000000e+00   0.00000000e+00
   0.00000000e+00   0.00000000e+00   0.00000000e+00   0.00000000e+00
   0.00000000e+00   0.00000000e+00   0.00000000e+00   0.00000000e+00
   0.00000000e+00   0.00000000e+00   0.00000000e+00   0.00000000e+00
   0.00000000e+00   0.00000000e+00   0.00000000e+00   0.00000000e+00
   0.00000000e+00   0.00000000e+00   0.00000000e+00   0.00000000e+00
   0.00000000e+00   0.00000000e+00   0.00000000e+00   0.00000000e+00
   0.00000000e+00   0.00000000e+00   0.00000000e+00   0.00000000e+00
   0.00000000e+00   0.00000000e+00   0.00000000e+00   0.00000000e+00
   0.00000000e+00   0.00000000e+00   0.00000000e+00   0.00000000e+00)
	( -2.50000000e+00  -2.33333333e+00  -2.16666667e+00  -2.00000000e+00
  -1.83333333e+00  -1.66666667e+00  -1.50000000e+00  -1.33333333e+00
  -1.16666667e+00  -1.00000000e+00  -8.33333333e-01  -6.66666667e-01
  -5.00000000e-01  -3.33333333e-01  -1.66666667e-01   6.87993329e-17
   1.75766382e-01   3.47204812e-01   5.10093907e-01   6.60422797e-01
   7.94489887e-01   9.08993998e-01   1.00111566e+00   1.06858653e+00
   1.10974526e+00   1.12357837e+00   1.10974526e+00   1.06858653e+00
   1.00111566e+00   9.08993998e-01   7.94489887e-01   6.60422797e-01
   5.10093907e-01   3.47204812e-01   1.75766382e-01   6.87993329e-17
  -1.25000000e-01  -2.50000000e-01  -3.75000000e-01  -5.00000000e-01
  -6.25000000e-01  -7.50000000e-01  -8.75000000e-01  -1.00000000e+00
  -1.12500000e+00  -1.25000000e+00  -1.37500000e+00  -1.50000000e+00
  -1.62500000e+00  -1.75000000e+00  -1.87500000e+00  -2.00000000e+00
  -2.12500000e+00  -2.25000000e+00  -2.37500000e+00  -2.50000000e+00
  -2.60980271e+00  -2.78410365e+00  -3.06078915e+00  -3.50000000e+00
   1.12357837e+00   1.12357837e+00   1.12357837e+00   1.12357837e+00
   1.12357837e+00   1.12357837e+00   1.12357837e+00   1.12357837e+00
   1.12357837e+00   1.12357837e+00   1.12357837e+00   1.12357837e+00
   1.12357837e+00   1.12357837e+00   1.12357837e+00   1.12357837e+00
   1.10974526e+00   1.06858653e+00   1.00111566e+00   9.08993998e-01
   7.94489887e-01   6.60422797e-01   5.10093907e-01   3.47204812e-01
   1.75766382e-01   0.00000000e+00  -1.75766382e-01  -3.47204812e-01
  -5.10093907e-01  -6.60422797e-01  -7.94489887e-01  -9.08993998e-01
  -1.00111566e+00  -1.06858653e+00  -1.10974526e+00  -1.12357837e+00
  -1.12357837e+00  -1.12357837e+00  -1.12357837e+00  -1.12357837e+00
  -1.12357837e+00  -1.12357837e+00  -1.12357837e+00  -1.12357837e+00
  -1.12357837e+00  -1.12357837e+00  -1.12357837e+00  -1.12357837e+00
  -1.12357837e+00  -1.12357837e+00  -1.12357837e+00  -1.12357837e+00
  -1.12357837e+00  -1.12357837e+00  -1.12357837e+00  -1.12357837e+00
  -1.12357837e+00  -1.12357837e+00  -1.12357837e+00  -1.12357837e+00
   0.00000000e+00   0.00000000e+00   0.00000000e+00   0.00000000e+00
   0.00000000e+00   0.00000000e+00   0.00000000e+00   0.00000000e+00
   0.00000000e+00   0.00000000e+00   0.00000000e+00   0.00000000e+00
   0.00000000e+00   0.00000000e+00   0.00000000e+00   0.00000000e+00
   0.00000000e+00   0.00000000e+00   0.00000000e+00   0.00000000e+00
   0.00000000e+00   0.00000000e+00   0.00000000e+00   0.00000000e+00
   0.00000000e+00   0.00000000e+00   0.00000000e+00   0.00000000e+00
   0.00000000e+00   0.00000000e+00   0.00000000e+00   0.00000000e+00
   0.00000000e+00   0.00000000e+00   0.00000000e+00   0.00000000e+00
   0.00000000e+00   0.00000000e+00   0.00000000e+00   0.00000000e+00
   0.00000000e+00   0.00000000e+00   0.00000000e+00   0.00000000e+00
   0.00000000e+00   0.00000000e+00   0.00000000e+00   0.00000000e+00
   0.00000000e+00   0.00000000e+00   0.00000000e+00   0.00000000e+00
   0.00000000e+00   0.00000000e+00   0.00000000e+00   0.00000000e+00
   0.00000000e+00   0.00000000e+00   0.00000000e+00   0.00000000e+00)
	( -2.50000000e+00  -2.33333333e+00  -2.16666667e+00  -2.00000000e+00
  -1.83333333e+00  -1.66666667e+00  -1.50000000e+00  -1.33333333e+00
  -1.16666667e+00  -1.00000000e+00  -8.33333333e-01  -6.66666667e-01
  -5.00000000e-01  -3.33333333e-01  -1.66666667e-01   6.69081112e-17
   1.70934748e-01   3.37660515e-01   4.96071959e-01   6.42268465e-01
   7.72650191e-01   8.84006704e-01   9.73596038e-01   1.03921221e+00
   1.07923952e+00   1.09269238e+00   1.07923952e+00   1.03921221e+00
   9.73596038e-01   8.84006704e-01   7.72650191e-01   6.42268465e-01
   4.96071959e-01   3.37660515e-01   1.70934748e-01   6.69081112e-17
  -1.25000000e-01  -2.50000000e-01  -3.75000000e-01  -5.00000000e-01
  -6.25000000e-01  -7.50000000e-01  -8.75000000e-01  -1.00000000e+00
  -1.12500000e+00  -1.25000000e+00  -1.37500000e+00  -1.50000000e+00
  -1.62500000e+00  -1.75000000e+00  -1.87500000e+00  -2.00000000e+00
  -2.12500000e+00  -2.25000000e+00  -2.37500000e+00  -2.50000000e+00
  -2.60980271e+00  -2.78410365e+00  -3.06078915e+00  -3.50000000e+00
   1.09269238e+00   1.09269238e+00   1.09269238e+00   1.09269238e+00
   1.09269238e+00   1.09269238e+00   1.09269238e+00   1.09269238e+00